test/data/r4_12_47_2/result.csv
# result.csv run at 2000-01-01 00:00:00 EST on 1599 powerflow objects (not all are nodes)
node_name,voltA_real,voltA_imag,voltB_real,voltB_imag,voltC_real,voltC_imag
R4-12-47-2_load_1,261.612433,-16.766765,0.000000,0.000000,0.000000,0.000000
R4-12-47-2_load_2,274.785479,-2.014456,-140.297794,-236.952549,0.000000,0.000000
R4-12-47-2_load_3,0.000000,0.000000,-145.923150,-219.187961,0.000000,0.000000
R4-12-47-2_load_4,0.000000,0.000000,-145.924234,-219.195617,0.000000,0.000000
R4-12-47-2_load_5,0.000000,0.000000,-140.431617,-236.996878,0.000000,0.000000
R4-12-47-2_load_6,0.000000,0.000000,-149.431409,-223.211972,0.000000,0.000000
R4-12-47-2_load_7,0.000000,0.000000,-144.041936,-231.893024,0.000000,0.000000
R4-12-47-2_load_8,273.962751,-3.695342,0.000000,0.000000,0.000000,0.000000
R4-12-47-2_load_9,274.712183,-1.978202,-140.252704,-236.952364,-137.747051,239.928903
R4-12-47-2_load_10,274.681257,-2.050007,-140.298945,-236.890020,-137.670355,239.938190
R4-12-47-2_load_11,274.455520,-2.572779,0.000000,0.000000,0.000000,0.000000
R4-12-47-2_load_12,274.668687,-2.079604,-140.318155,-236.864325,-137.638681,239.942227
R4-12-47-2_load_13,273.908006,-3.830531,-140.215194,-236.996129,-137.804481,239.930071
R4-12-47-2_load_14,274.432165,-2.631613,-140.679904,-236.370334,-137.034383,240.019819
R4-12-47-2_load_15,0.000000,0.000000,0.000000,0.000000,-118.280924,236.043838
R4-12-47-2_load_16,274.472686,-2.532538,-140.614685,-236.456968,-137.141402,240.004976
R4-12-47-2_load_17,274.720061,-1.960293,-140.220613,-236.992892,-137.760097,239.929038
R4-12-47-2_load_18,274.611721,-2.212567,-140.405926,-236.744080,-137.491812,239.961558
R4-12-47-2_load_19,0.000000,0.000000,0.000000,0.000000,-133.650348,240.267478
R4-12-47-2_load_20,274.493210,-2.471373,-140.565021,-236.538996,-137.236411,239.985244
R4-12-47-2_load_21,274.595206,-2.235719,-140.226434,-236.996688,-137.798848,239.916407
R4-12-47-2_meter_1,261.612433,-16.766765,0.000000,0.000000,0.000000,0.000000
R4-12-47-2_meter_2,274.785479,-2.014456,-140.297794,-236.952549,0.000000,0.000000
R4-12-47-2_meter_3,0.000000,0.000000,-145.923150,-219.187961,0.000000,0.000000
R4-12-47-2_meter_4,0.000000,0.000000,-145.924234,-219.195617,0.000000,0.000000
R4-12-47-2_meter_5,0.000000,0.000000,-140.431617,-236.996878,0.000000,0.000000
R4-12-47-2_meter_6,0.000000,0.000000,-149.431409,-223.211972,0.000000,0.000000
R4-12-47-2_meter_7,0.000000,0.000000,-144.041936,-231.893024,0.000000,0.000000
R4-12-47-2_meter_8,273.962751,-3.695342,0.000000,0.000000,0.000000,0.000000
R4-12-47-2_meter_9,274.712183,-1.978202,-140.252704,-236.952364,-137.747051,239.928903
R4-12-47-2_meter_10,274.681257,-2.050007,-140.298945,-236.890020,-137.670355,239.938190
R4-12-47-2_meter_11,274.455520,-2.572779,0.000000,0.000000,0.000000,0.000000
R4-12-47-2_meter_12,274.668687,-2.079604,-140.318155,-236.864325,-137.638681,239.942227
R4-12-47-2_meter_13,273.908006,-3.830531,-140.215194,-236.996129,-137.804481,239.930071
R4-12-47-2_meter_14,274.432165,-2.631613,-140.679904,-236.370334,-137.034383,240.019819
R4-12-47-2_meter_15,0.000000,0.000000,0.000000,0.000000,-118.280924,236.043838
R4-12-47-2_meter_16,274.472686,-2.532538,-140.614685,-236.456968,-137.141402,240.004976
R4-12-47-2_meter_17,274.720061,-1.960293,-140.220613,-236.992892,-137.760097,239.929038
R4-12-47-2_meter_18,274.611721,-2.212567,-140.405926,-236.744080,-137.491812,239.961558
R4-12-47-2_meter_19,0.000000,0.000000,0.000000,0.000000,-133.650348,240.267478
R4-12-47-2_meter_20,274.493210,-2.471373,-140.565021,-236.538996,-137.236411,239.985244
R4-12-47-2_meter_21,274.595206,-2.235719,-140.226434,-236.996688,-137.798848,239.916407
R4-12-47-2_meter_22,7216.867514,0.002887,-3608.430384,-6249.990266,-3608.437632,6249.992193
R4-12-47-2_node_1,0.000000,0.000000,-3648.445983,-6168.627508,0.000000,0.000000
R4-12-47-2_node_2,0.000000,0.000000,-3648.833647,-6170.821668,0.000000,0.000000
R4-12-47-2_node_3,0.000000,0.000000,-3648.753217,-6171.288933,0.000000,0.000000
R4-12-47-2_node_4,0.000000,0.000000,-3648.781331,-6170.525872,0.000000,0.000000
R4-12-47-2_node_5,7151.293053,-48.874505,0.000000,0.000000,0.000000,0.000000
R4-12-47-2_node_6,7156.412514,-49.045146,0.000000,0.000000,0.000000,0.000000
R4-12-47-2_node_7,0.000000,0.000000,-3648.878049,-6171.073382,0.000000,0.000000
R4-12-47-2_node_8,0.000000,0.000000,-3649.107331,-6173.318649,0.000000,0.000000
R4-12-47-2_node_9,7158.259624,-48.363100,0.000000,0.000000,0.000000,0.000000
R4-12-47-2_node_10,7158.914023,-46.147240,-3649.836054,-6177.480515,0.000000,0.000000
R4-12-47-2_node_11,0.000000,0.000000,-3650.607765,-6172.056571,0.000000,0.000000
R4-12-47-2_node_12,7157.474948,-46.705394,-3650.212703,-6173.737929,-3589.683304,6248.768176
R4-12-47-2_node_13,7158.226119,-46.356503,-3649.744454,-6175.367304,-3589.934135,6248.572379
R4-12-47-2_node_14,7159.591931,-45.806135,-3648.806945,-6178.510461,-3590.534030,6248.182430
R4-12-47-2_node_15,7159.445223,-45.754609,-3648.991148,-6177.767937,-3590.256161,6248.322987
R4-12-47-2_node_16,7158.578812,-46.188704,-3649.529079,-6176.117992,-3590.055892,6248.488880
R4-12-47-2_node_17,0.000000,0.000000,-3648.513613,-6174.547977,-3588.508382,6248.199893
R4-12-47-2_node_18,7154.450226,-50.269929,-3651.618470,-6171.742662,-3588.531068,6247.970625
R4-12-47-2_node_19,7154.136210,-50.713996,-3651.732018,-6171.784039,-3588.506658,6247.822515
R4-12-47-2_node_20,7154.617744,-50.033252,-3651.558381,-6171.715846,-3588.540662,6248.051935
R4-12-47-2_node_21,7154.675250,-49.952005,-3651.537753,-6171.706640,-3588.543956,6248.079848
R4-12-47-2_node_22,7154.617632,-50.004790,-3651.550633,-6171.681416,-3588.515926,6248.056694
R4-12-47-2_node_23,7154.537136,-50.182870,-3651.594293,-6171.694125,-3588.489906,6248.012321
R4-12-47-2_node_24,7154.494473,-50.276539,-3651.612504,-6171.714686,-3588.491428,6247.983905
R4-12-47-2_node_25,7154.489818,-50.286761,-3651.615184,-6171.715105,-3588.489794,6247.981456
R4-12-47-2_node_26,7216.045356,-0.727013,-3608.967189,-6248.946215,-3608.003707,6249.927326
R4-12-47-2_node_27,7216.526410,-0.277686,-3608.634254,-6249.571673,-3608.271876,6249.958090
R4-12-47-2_node_28,7154.139288,-50.709940,-3651.730045,-6171.788740,-3588.511676,6247.823101
R4-12-47-2_node_29,0.000000,0.000000,-3649.275605,-6173.327443,0.000000,0.000000
R4-12-47-2_node_30,0.000000,0.000000,-3648.733294,-6170.254271,0.000000,0.000000
R4-12-47-2_node_31,7146.692948,-50.447088,0.000000,0.000000,0.000000,0.000000
R4-12-47-2_node_32,7159.196492,-45.878589,-3649.143253,-6177.304850,-3590.201089,6248.367991
R4-12-47-2_node_33,7201.874503,-13.262860,-3618.457035,-6231.162913,-3600.799863,6248.881555
R4-12-47-2_node_34,0.000000,0.000000,0.000000,0.000000,-3600.768873,6248.859476
R4-12-47-2_node_35,7197.394003,-17.114314,-3621.500260,-6225.705054,-3598.949731,6248.591179
R4-12-47-2_node_36,0.000000,0.000000,-3635.352214,-6198.218606,0.000000,0.000000
R4-12-47-2_node_37,7162.322583,-40.297204,0.000000,0.000000,0.000000,0.000000
R4-12-47-2_node_38,7152.252419,-50.581898,0.000000,0.000000,0.000000,0.000000
R4-12-47-2_node_39,0.000000,0.000000,0.000000,0.000000,-3588.838200,6245.670354
R4-12-47-2_node_40,7185.246879,-27.482872,-3629.792840,-6211.053234,-3594.269035,6247.828031
R4-12-47-2_node_41,7176.507844,-35.041741,-3635.655343,-6200.724365,-3590.845622,6247.164014
R4-12-47-2_node_42,7176.573634,-35.035912,-3635.682289,-6200.782235,-3590.882097,6247.215572
R4-12-47-2_node_43,7179.876742,-32.069455,-3633.454672,-6204.724082,-3592.384492,6247.480613
R4-12-47-2_node_44,7176.862432,-34.657964,-3635.501414,-6201.192877,-3591.319376,6247.275855
R4-12-47-2_node_45,7169.690574,-40.117289,-3640.507811,-6193.473131,-3590.998611,6247.022559
R4-12-47-2_node_46,0.000000,0.000000,0.000000,0.000000,-3595.461117,6247.875601
R4-12-47-2_node_47,0.000000,0.000000,0.000000,0.000000,-3598.885732,6247.548653
R4-12-47-2_node_48,0.000000,0.000000,0.000000,0.000000,-3598.461384,6247.254438
R4-12-47-2_node_49,0.000000,0.000000,0.000000,0.000000,-3598.500173,6247.281281
R4-12-47-2_node_50,0.000000,0.000000,0.000000,0.000000,-3598.457754,6247.251847
R4-12-47-2_node_51,0.000000,0.000000,0.000000,0.000000,-3598.259335,6247.112497
R4-12-47-2_node_52,0.000000,0.000000,0.000000,0.000000,-3588.910587,6245.072596
R4-12-47-2_node_53,0.000000,0.000000,0.000000,0.000000,-3588.792040,6244.992096
R4-12-47-2_node_54,7146.692918,-50.446988,0.000000,0.000000,0.000000,0.000000
R4-12-47-2_node_55,0.000000,0.000000,0.000000,0.000000,-3579.054762,6237.609848
R4-12-47-2_node_56,0.000000,0.000000,0.000000,0.000000,-3579.047839,6237.604148
R4-12-47-2_node_57,7152.694614,-50.420467,0.000000,0.000000,0.000000,0.000000
R4-12-47-2_node_58,0.000000,0.000000,-3648.387572,-6169.190059,0.000000,0.000000
R4-12-47-2_node_59,0.000000,0.000000,0.000000,0.000000,-3585.438898,6245.668076
R4-12-47-2_node_60,7154.484011,-50.288922,-3651.614133,-6171.709013,-3588.485034,6247.977558
R4-12-47-2_node_61,7154.488560,-50.278601,0.000000,0.000000,0.000000,0.000000
R4-12-47-2_node_62,0.000000,0.000000,-3650.431682,-6171.670827,0.000000,0.000000
R4-12-47-2_node_63,7176.570804,-35.031530,-3635.677254,-6200.781987,-3590.884357,6247.211125
R4-12-47-2_node_64,7216.526410,-0.277686,-3608.634254,-6249.571673,-3608.271876,6249.958090
R4-12-47-2_node_65,7174.242653,-36.649139,-3637.308526,-6198.373423,-3591.168910,6247.173878
R4-12-47-2_node_66,7157.474071,-46.704039,-3650.209996,-6173.738321,-3589.683707,6248.767441
R4-12-47-2_node_67,7216.857915,0.018260,-3608.411033,-6249.990149,-3608.443071,6249.982018
R4-12-47-2_node_68,7154.121242,-50.733166,-3651.741142,-6171.761454,-3588.482730,6247.819400
R4-12-47-2_node_69,0.000000,0.000000,0.000000,0.000000,-3588.506658,6247.822515
R4-12-47-2_node_70,0.000000,0.000000,-3649.834639,-6177.480452,0.000000,0.000000
R4-12-47-2_node_71,0.000000,0.000000,0.000000,0.000000,-3588.792054,6244.992069
R4-12-47-2_node_72,7158.258894,-48.361968,0.000000,0.000000,0.000000,0.000000
R4-12-47-2_node_73,0.000000,0.000000,-3649.834295,-6177.480434,0.000000,0.000000
R4-12-47-2_node_74,7158.913117,-46.145808,0.000000,0.000000,0.000000,0.000000
R4-12-47-2_node_75,0.000000,0.000000,-3648.511886,-6174.547896,0.000000,0.000000
R4-12-47-2_node_76,0.000000,0.000000,0.000000,0.000000,-3588.508925,6248.198827
R4-12-47-2_node_77,7176.506430,-35.039550,0.000000,0.000000,0.000000,0.000000
R4-12-47-2_node_78,0.000000,0.000000,0.000000,0.000000,-3589.389897,6245.518695
R4-12-47-2_node_79,7169.690497,-40.117168,0.000000,0.000000,0.000000,0.000000
R4-12-47-2_node_80,0.000000,0.000000,-3635.501263,-6201.192900,0.000000,0.000000
R4-12-47-2_node_81,0.000000,0.000000,-3633.454621,-6204.724080,0.000000,0.000000
R4-12-47-2_node_82,7162.427701,-45.520903,-3645.692424,-6185.456635,-3590.804866,6246.868541
R4-12-47-2_node_83,0.000000,0.000000,-3635.652825,-6200.724241,0.000000,0.000000
R4-12-47-2_node_84,0.000000,0.000000,-3648.989421,-6177.767856,-3590.256736,6248.321888
R4-12-47-2_node_85,7158.996320,-45.978314,0.000000,0.000000,0.000000,0.000000
R4-12-47-2_node_86,0.000000,0.000000,0.000000,0.000000,-3590.846752,6247.161790
R4-12-47-2_node_87,7158.258684,-48.361642,0.000000,0.000000,0.000000,0.000000
R4-12-47-2_node_88,0.000000,0.000000,0.000000,0.000000,-3598.885751,6247.548616
R4-12-47-2_node_89,0.000000,0.000000,0.000000,0.000000,-3595.982628,6248.125273
R4-12-47-2_node_90,0.000000,0.000000,0.000000,0.000000,-3600.800049,6248.881192
R4-12-47-2_node_91,7157.474928,-46.705330,0.000000,0.000000,-3589.683354,6248.768117
R4-12-47-2_node_92,7154.494413,-50.276446,0.000000,0.000000,0.000000,0.000000
R4-12-47-2_node_93,7154.494470,-50.276534,-3651.612498,-6171.714686,-3588.491431,6247.983899
R4-12-47-2_node_94,7154.489808,-50.286747,-3651.615168,-6171.715104,-3588.489802,6247.981441
R4-12-47-2_node_95,7154.489796,-50.286727,0.000000,0.000000,0.000000,0.000000
R4-12-47-2_node_96,0.000000,0.000000,-3650.607056,-6172.056726,0.000000,0.000000
R4-12-47-2_node_97,0.000000,0.000000,-3650.607536,-6172.056619,0.000000,0.000000
R4-12-47-2_node_98,0.000000,0.000000,-3635.454673,-6200.852287,0.000000,0.000000
R4-12-47-2_node_99,0.000000,0.000000,0.000000,0.000000,-3600.606281,6248.746219
R4-12-47-2_node_100,0.000000,0.000000,0.000000,0.000000,-3599.815092,6248.194759
R4-12-47-2_node_101,7186.579622,-26.344589,-3628.884058,-6212.623983,-3594.736735,6247.914252
R4-12-47-2_node_102,0.000000,0.000000,0.000000,0.000000,-3599.339707,6247.864127
R4-12-47-2_node_103,0.000000,0.000000,0.000000,0.000000,-3598.225129,6247.087813
R4-12-47-2_node_104,0.000000,0.000000,0.000000,0.000000,-3598.468889,6247.266302
R4-12-47-2_node_105,0.000000,0.000000,0.000000,0.000000,-3598.850419,6247.523718
R4-12-47-2_node_106,0.000000,0.000000,0.000000,0.000000,-3600.161376,6248.435940
R4-12-47-2_node_107,0.000000,0.000000,0.000000,0.000000,-3595.480167,6247.884770
R4-12-47-2_node_108,0.000000,0.000000,0.000000,0.000000,-3595.675181,6247.977963
R4-12-47-2_node_109,0.000000,0.000000,0.000000,0.000000,-3595.839671,6248.056753
R4-12-47-2_node_110,7190.172636,-23.315561,-3626.411153,-6216.911942,-3595.982513,6248.125499
R4-12-47-2_node_111,7194.044050,-19.993946,-3623.775600,-6221.624354,-3597.566435,6248.374073
R4-12-47-2_node_112,7153.878121,-49.980763,0.000000,0.000000,0.000000,0.000000
R4-12-47-2_node_113,7153.098662,-50.269002,0.000000,0.000000,0.000000,0.000000
R4-12-47-2_node_114,7155.835344,-49.257330,0.000000,0.000000,0.000000,0.000000
R4-12-47-2_node_115,0.000000,0.000000,-3648.826215,-6171.707972,0.000000,0.000000
R4-12-47-2_node_116,7156.494996,-49.014635,0.000000,0.000000,0.000000,0.000000
R4-12-47-2_node_117,7151.516231,-48.795296,0.000000,0.000000,0.000000,0.000000
R4-12-47-2_node_118,7152.091653,-48.591089,0.000000,0.000000,0.000000,0.000000
R4-12-47-2_node_119,7153.024162,-48.258059,0.000000,0.000000,0.000000,0.000000
R4-12-47-2_node_120,7154.789897,-47.626469,0.000000,0.000000,0.000000,0.000000
R4-12-47-2_node_121,7156.512810,-47.009139,0.000000,0.000000,0.000000,0.000000
R4-12-47-2_node_122,0.000000,0.000000,-3649.320236,-6173.580320,0.000000,0.000000
R4-12-47-2_node_123,0.000000,0.000000,-3649.415153,-6174.118309,0.000000,0.000000
R4-12-47-2_node_124,0.000000,0.000000,-3649.302673,-6174.437883,0.000000,0.000000
R4-12-47-2_node_125,0.000000,0.000000,-3649.582149,-6176.037956,0.000000,0.000000
R4-12-47-2_node_126,0.000000,0.000000,-3649.761730,-6177.065379,0.000000,0.000000
R4-12-47-2_node_127,0.000000,0.000000,-3648.340963,-6173.562936,0.000000,0.000000
R4-12-47-2_node_128,0.000000,0.000000,0.000000,0.000000,-3587.609063,6247.457124
R4-12-47-2_node_129,0.000000,0.000000,0.000000,0.000000,-3587.176375,6247.100516
R4-12-47-2_node_130,0.000000,0.000000,-3648.159854,-6172.520769,0.000000,0.000000
R4-12-47-2_node_131,0.000000,0.000000,-3648.029148,-6171.772284,0.000000,0.000000
R4-12-47-2_node_132,0.000000,0.000000,-3648.084947,-6172.090430,0.000000,0.000000
R4-12-47-2_node_133,0.000000,0.000000,0.000000,0.000000,-3585.438898,6245.668076
R4-12-47-2_node_134,0.000000,0.000000,0.000000,0.000000,-3585.552904,6245.762834
R4-12-47-2_node_135,0.000000,0.000000,0.000000,0.000000,-3585.759569,6245.933011
R4-12-47-2_node_136,7174.831467,-35.659663,0.000000,0.000000,0.000000,0.000000
R4-12-47-2_node_137,7174.118219,-35.923658,0.000000,0.000000,0.000000,0.000000
R4-12-47-2_node_138,7172.140038,-36.656444,0.000000,0.000000,0.000000,0.000000
R4-12-47-2_node_139,7169.298243,-37.709437,0.000000,0.000000,0.000000,0.000000
R4-12-47-2_node_140,7167.231310,-38.475849,0.000000,0.000000,0.000000,0.000000
R4-12-47-2_node_141,7165.200053,-39.229400,0.000000,0.000000,0.000000,0.000000
R4-12-47-2_node_142,7163.128038,-39.998237,0.000000,0.000000,0.000000,0.000000
R4-12-47-2_node_143,7154.488560,-50.278601,0.000000,0.000000,0.000000,0.000000
R4-12-47-2_node_144,7154.485703,-50.288254,0.000000,0.000000,0.000000,0.000000
R4-12-47-2_node_145,0.000000,0.000000,-3648.962875,-6171.554716,0.000000,0.000000
R4-12-47-2_node_146,0.000000,0.000000,-3649.197931,-6172.887347,0.000000,0.000000
R4-12-47-2_node_147,0.000000,0.000000,-3650.486470,-6171.796115,0.000000,0.000000
R4-12-47-2_node_148,0.000000,0.000000,-3650.253349,-6171.292157,0.000000,0.000000
R4-12-47-2_node_149,0.000000,0.000000,-3650.073376,-6170.902901,0.000000,0.000000
R4-12-47-2_node_150,0.000000,0.000000,-3650.027250,-6170.803305,0.000000,0.000000
R4-12-47-2_node_151,0.000000,0.000000,-3650.431682,-6171.670827,0.000000,0.000000
R4-12-47-2_node_152,0.000000,0.000000,-3650.516552,-6171.854628,0.000000,0.000000
R4-12-47-2_node_153,0.000000,0.000000,0.000000,0.000000,-3588.759020,6244.964057
R4-12-47-2_node_154,7152.082783,-50.644621,0.000000,0.000000,0.000000,0.000000
R4-12-47-2_node_155,7151.438354,-50.882933,0.000000,0.000000,0.000000,0.000000
R4-12-47-2_node_156,7151.033341,-51.032675,0.000000,0.000000,0.000000,0.000000
R4-12-47-2_node_157,7150.617957,-51.186318,0.000000,0.000000,0.000000,0.000000
R4-12-47-2_node_158,7150.015918,-51.408953,0.000000,0.000000,0.000000,0.000000
R4-12-47-2_node_159,7149.783035,-51.495136,0.000000,0.000000,0.000000,0.000000
R4-12-47-2_node_160,7149.538569,-51.585635,0.000000,0.000000,0.000000,0.000000
R4-12-47-2_node_161,7152.710612,-50.414549,0.000000,0.000000,0.000000,0.000000
R4-12-47-2_node_162,7153.003702,-50.306074,0.000000,0.000000,0.000000,0.000000
R4-12-47-2_node_163,7153.294487,-50.198427,0.000000,0.000000,0.000000,0.000000
R4-12-47-2_node_164,7153.646075,-50.068248,0.000000,0.000000,0.000000,0.000000
R4-12-47-2_node_165,7154.025877,-49.927775,0.000000,0.000000,0.000000,0.000000
R4-12-47-2_node_166,7154.387750,-49.793934,0.000000,0.000000,0.000000,0.000000
R4-12-47-2_node_167,7154.756716,-49.657512,0.000000,0.000000,0.000000,0.000000
R4-12-47-2_node_168,7155.275057,-49.465848,0.000000,0.000000,0.000000,0.000000
R4-12-47-2_node_169,7155.832499,-49.259699,0.000000,0.000000,0.000000,0.000000
R4-12-47-2_node_170,7150.910702,-49.010207,0.000000,0.000000,0.000000,0.000000
R4-12-47-2_node_171,7150.304705,-49.224294,0.000000,0.000000,0.000000,0.000000
R4-12-47-2_node_172,7149.604220,-49.470338,0.000000,0.000000,0.000000,0.000000
R4-12-47-2_node_173,7147.536535,-50.180999,0.000000,0.000000,0.000000,0.000000
R4-12-47-2_node_174,7148.669919,-49.797915,0.000000,0.000000,0.000000,0.000000
R4-12-47-2_node_175,7147.208870,-50.289851,0.000000,0.000000,0.000000,0.000000
R4-12-47-2_node_176,7146.866802,-50.397078,0.000000,0.000000,0.000000,0.000000
R4-12-47-2_node_177,7146.692948,-50.447088,0.000000,0.000000,0.000000,0.000000
R4-12-47-2_node_178,7146.688874,-50.447292,0.000000,0.000000,0.000000,0.000000
R4-12-47-2_node_179,7146.666346,-50.448988,0.000000,0.000000,0.000000,0.000000
R4-12-47-2_node_180,7146.666346,-50.448988,0.000000,0.000000,0.000000,0.000000
R4-12-47-2_node_181,0.000000,0.000000,-3648.845455,-6170.888435,0.000000,0.000000
R4-12-47-2_node_182,0.000000,0.000000,-3648.709846,-6171.039970,0.000000,0.000000
R4-12-47-2_node_183,0.000000,0.000000,-3648.582126,-6170.307193,0.000000,0.000000
R4-12-47-2_node_184,0.000000,0.000000,-3648.534357,-6170.033528,0.000000,0.000000
R4-12-47-2_node_185,0.000000,0.000000,-3648.455812,-6169.582099,0.000000,0.000000
R4-12-47-2_node_186,0.000000,0.000000,-3648.424446,-6169.402588,0.000000,0.000000
R4-12-47-2_node_187,0.000000,0.000000,-3648.387572,-6169.190059,0.000000,0.000000
R4-12-47-2_node_188,0.000000,0.000000,-3635.171668,-6197.164158,0.000000,0.000000
R4-12-47-2_node_189,0.000000,0.000000,-3634.790003,-6194.934112,0.000000,0.000000
R4-12-47-2_node_190,0.000000,0.000000,-3634.433774,-6192.852736,0.000000,0.000000
R4-12-47-2_node_191,0.000000,0.000000,-3634.028938,-6190.484893,0.000000,0.000000
R4-12-47-2_node_192,0.000000,0.000000,-3633.630395,-6188.156258,0.000000,0.000000
R4-12-47-2_node_193,7159.480409,-41.352169,0.000000,0.000000,0.000000,0.000000
R4-12-47-2_node_194,7160.974573,-40.797554,0.000000,0.000000,0.000000,0.000000
R4-12-47-2_node_195,0.000000,0.000000,0.000000,0.000000,-3582.495301,6240.445632
R4-12-47-2_node_196,0.000000,0.000000,0.000000,0.000000,-3581.501604,6239.626150
R4-12-47-2_node_197,0.000000,0.000000,0.000000,0.000000,-3580.831082,6239.073515
R4-12-47-2_node_198,0.000000,0.000000,0.000000,0.000000,-3583.278578,6241.091447
R4-12-47-2_node_199,0.000000,0.000000,0.000000,0.000000,-3584.050235,6241.727312
R4-12-47-2_node_200,0.000000,0.000000,0.000000,0.000000,-3585.170605,6242.650211
...
R4-12-47-2_tm_1,-59.406818,103.521614,-59.406818,103.521614,0.000000,0.000000
R4-12-47-2_tm_2,-59.317373,103.447571,-59.317373,103.447571,0.000000,0.000000
R4-12-47-2_tm_3,118.785697,-0.832944,118.785697,-0.832944,0.000000,0.000000
R4-12-47-2_tm_4,-60.616641,-102.450910,-60.616641,-102.450910,0.000000,0.000000
R4-12-47-2_tm_5,-59.149698,103.307344,-59.149698,103.307344,0.000000,0.000000
R4-12-47-2_tm_6,118.582956,-0.897565,118.582956,-0.897565,0.000000,0.000000
R4-12-47-2_tm_7,118.372923,-0.973462,118.372923,-0.973462,0.000000,0.000000
R4-12-47-2_tm_8,-59.509644,103.703494,-59.509644,103.703494,0.000000,0.000000
R4-12-47-2_tm_9,-60.376890,-102.934014,-60.376890,-102.934014,0.000000,0.000000
R4-12-47-2_tm_10,118.756852,-0.865951,118.756852,-0.865951,0.000000,0.000000
R4-12-47-2_tm_11,-60.540747,-102.506224,-60.540747,-102.506224,0.000000,0.000000
R4-12-47-2_tm_12,-59.438735,103.628443,-59.438735,103.628443,0.000000,0.000000
R4-12-47-2_tm_13,117.915913,-0.868609,117.915913,-0.868609,0.000000,0.000000
R4-12-47-2_tm_14,-60.119856,-101.782498,-60.119856,-101.782498,0.000000,0.000000
R4-12-47-2_tm_15,-58.772839,103.112071,-58.772839,103.112071,0.000000,0.000000
R4-12-47-2_tm_16,-59.698650,103.753554,-59.698650,103.753554,0.000000,0.000000
R4-12-47-2_tm_17,-59.542865,103.667216,-59.542865,103.667216,0.000000,0.000000
R4-12-47-2_tm_18,-59.602632,103.738486,-59.602632,103.738486,0.000000,0.000000
R4-12-47-2_tm_19,-59.360245,103.505126,-59.360245,103.505126,0.000000,0.000000
R4-12-47-2_tm_20,118.277433,-0.841195,118.277433,-0.841195,0.000000,0.000000
R4-12-47-2_tm_21,-59.265156,103.303316,-59.265156,103.303316,0.000000,0.000000
R4-12-47-2_tm_22,-59.566070,103.742413,-59.566070,103.742413,0.000000,0.000000
R4-12-47-2_tm_23,118.172552,-1.076835,118.172552,-1.076835,0.000000,0.000000
R4-12-47-2_tm_24,118.386534,-0.952499,118.386534,-0.952499,0.000000,0.000000
R4-12-47-2_tm_25,118.491241,-0.953211,118.491241,-0.953211,0.000000,0.000000
R4-12-47-2_tm_26,118.345204,-1.025025,118.345204,-1.025025,0.000000,0.000000
R4-12-47-2_tm_27,-60.530916,-102.009547,-60.530916,-102.009547,0.000000,0.000000
R4-12-47-2_tm_28,-60.569626,-102.179466,-60.569626,-102.179466,0.000000,0.000000
R4-12-47-2_tm_29,-60.554499,-102.106029,-60.554499,-102.106029,0.000000,0.000000
R4-12-47-2_tm_30,118.172922,-1.043718,118.172922,-1.043718,0.000000,0.000000
R4-12-47-2_tm_31,118.602038,-0.908545,118.602038,-0.908545,0.000000,0.000000
R4-12-47-2_tm_32,118.618175,-0.904498,118.618175,-0.904498,0.000000,0.000000
R4-12-47-2_tm_33,118.052801,-1.084539,118.052801,-1.084539,0.000000,0.000000
R4-12-47-2_tm_34,118.820486,-0.840707,118.820486,-0.840707,0.000000,0.000000
R4-12-47-2_tm_35,-60.439030,-102.035303,-60.439030,-102.035303,0.000000,0.000000
R4-12-47-2_tm_36,-60.497061,-102.218748,-60.497061,-102.218748,0.000000,0.000000
R4-12-47-2_tm_37,-60.372411,-101.924130,-60.372411,-101.924130,0.000000,0.000000
R4-12-47-2_tm_38,-60.407334,-102.001550,-60.407334,-102.001550,0.000000,0.000000
R4-12-47-2_tm_39,-59.425625,103.609743,-59.425625,103.609743,0.000000,0.000000
R4-12-47-2_tm_40,-59.418421,103.603787,-59.418421,103.603787,0.000000,0.000000
R4-12-47-2_tm_41,-59.415581,103.608967,-59.415581,103.608967,0.000000,0.000000
R4-12-47-2_tm_42,-59.193847,103.346232,-59.193847,103.346232,0.000000,0.000000
R4-12-47-2_tm_43,-59.482795,103.690806,-59.482795,103.690806,0.000000,0.000000
R4-12-47-2_tm_44,-60.466722,-102.225512,-60.466722,-102.225512,0.000000,0.000000
R4-12-47-2_tm_45,-60.462825,-102.217104,-60.462825,-102.217104,0.000000,0.000000
R4-12-47-2_tm_46,-60.443361,-102.218625,-60.443361,-102.218625,0.000000,0.000000
R4-12-47-2_tm_47,-60.459045,-102.208947,-60.459045,-102.208947,0.000000,0.000000
R4-12-47-2_tm_48,-60.691670,-102.595630,-60.691670,-102.595630,0.000000,0.000000
R4-12-47-2_tm_49,-60.449353,-102.231436,-60.449353,-102.231436,0.000000,0.000000
R4-12-47-2_tm_50,117.656079,-0.946664,117.656079,-0.946664,0.000000,0.000000
R4-12-47-2_tm_51,-60.540241,-102.008950,-60.540241,-102.008950,0.000000,0.000000
R4-12-47-2_tm_52,117.656458,-0.946636,117.656458,-0.946636,0.000000,0.000000
R4-12-47-2_tm_53,-59.015556,103.268809,-59.015556,103.268809,0.000000,0.000000
R4-12-47-2_tm_54,118.108726,-1.100050,118.108726,-1.100050,0.000000,0.000000
R4-12-47-2_tm_55,-59.357008,103.475702,-59.357008,103.475702,0.000000,0.000000
R4-12-47-2_tm_56,-59.775387,103.823814,-59.775387,103.823814,0.000000,0.000000
R4-12-47-2_tm_57,-59.769626,103.819798,-59.769626,103.819798,0.000000,0.000000
R4-12-47-2_tm_58,-59.663468,103.737019,-59.663468,103.737019,0.000000,0.000000
R4-12-47-2_tm_59,119.513550,-0.364189,119.513550,-0.364189,0.000000,0.000000
R4-12-47-2_tm_60,-59.767161,-102.384838,-59.767161,-102.384838,0.000000,0.000000
R4-12-47-2_tm_61,-59.738378,103.819792,-59.738378,103.819792,0.000000,0.000000
R4-12-47-2_tm_62,118.387067,-0.499312,118.387067,-0.499312,0.000000,0.000000
R4-12-47-2_tm_63,-59.810107,-102.306387,-59.810107,-102.306387,0.000000,0.000000
R4-12-47-2_tm_64,-59.450757,103.606940,-59.450757,103.606940,0.000000,0.000000
R4-12-47-2_tm_65,118.326689,-0.549238,118.326689,-0.549238,0.000000,0.000000
R4-12-47-2_tm_66,-60.238612,-102.924357,-60.238612,-102.924357,0.000000,0.000000
R4-12-47-2_tm_67,-59.091038,102.935788,-59.091038,102.935788,0.000000,0.000000
R4-12-47-2_tm_68,117.841081,-0.883173,117.841081,-0.883173,0.000000,0.000000
R4-12-47-2_tm_69,-60.450308,-102.196939,-60.450308,-102.196939,0.000000,0.000000
R4-12-47-2_tm_70,-59.008604,102.948498,-59.008604,102.948498,0.000000,0.000000
R4-12-47-2_tm_71,118.881925,-0.835172,118.881925,-0.835172,0.000000,0.000000
R4-12-47-2_tm_72,-60.209454,-101.559913,-60.209454,-101.559913,0.000000,0.000000
R4-12-47-2_tm_73,-58.999476,102.947987,-58.999476,102.947987,0.000000,0.000000
R4-12-47-2_tm_74,118.793194,-0.855730,118.793194,-0.855730,0.000000,0.000000
R4-12-47-2_tm_75,-60.202076,-101.572763,-60.202076,-101.572763,0.000000,0.000000
R4-12-47-2_tm_76,-59.005973,102.951483,-59.005973,102.951483,0.000000,0.000000
R4-12-47-2_tm_77,-59.646491,103.725210,-59.646491,103.725210,0.000000,0.000000
R4-12-47-2_tm_78,-59.231466,103.376452,-59.231466,103.376452,0.000000,0.000000
R4-12-47-2_tm_79,-59.606821,103.727779,-59.606821,103.727779,0.000000,0.000000
R4-12-47-2_tm_80,-59.599927,103.827432,-59.599927,103.827432,0.000000,0.000000
R4-12-47-2_tm_81,117.915527,-0.871016,117.915527,-0.871016,0.000000,0.000000
R4-12-47-2_tm_82,-59.132696,103.403094,-59.132696,103.403094,0.000000,0.000000
R4-12-47-2_tm_83,118.845048,-0.828542,118.845048,-0.828542,0.000000,0.000000
R4-12-47-2_tm_84,-59.501583,103.667888,-59.501583,103.667888,0.000000,0.000000
R4-12-47-2_tm_85,-59.251100,103.242169,-59.251100,103.242169,0.000000,0.000000
R4-12-47-2_tm_86,117.897677,-0.867651,117.897677,-0.867651,0.000000,0.000000
R4-12-47-2_tm_87,-60.149197,-101.726701,-60.149197,-101.726701,0.000000,0.000000
R4-12-47-2_tm_88,-59.362322,103.596313,-59.362322,103.596313,0.000000,0.000000
R4-12-47-2_tm_89,117.863207,-0.872891,117.863207,-0.872891,0.000000,0.000000
R4-12-47-2_tm_90,-60.365597,-102.042974,-60.365597,-102.042974,0.000000,0.000000
R4-12-47-2_tm_91,-59.015265,102.943288,-59.015265,102.943288,0.000000,0.000000
R4-12-47-2_tm_92,117.988118,-0.876562,117.988118,-0.876562,0.000000,0.000000
R4-12-47-2_tm_93,-60.189956,-101.616118,-60.189956,-101.616118,0.000000,0.000000
R4-12-47-2_tm_94,-59.011801,102.945907,-59.011801,102.945907,0.000000,0.000000
R4-12-47-2_tm_95,118.256423,-0.716774,118.256423,-0.716774,0.000000,0.000000
R4-12-47-2_tm_96,-59.988021,-101.997845,-59.988021,-101.997845,0.000000,0.000000
R4-12-47-2_tm_97,-59.031804,102.922968,-59.031804,102.922968,0.000000,0.000000
R4-12-47-2_tm_98,118.082526,-0.746759,118.082526,-0.746759,0.000000,0.000000
R4-12-47-2_tm_99,-60.012858,-101.958319,-60.012858,-101.958319,0.000000,0.000000
R4-12-47-2_tm_100,-59.414543,103.580211,-59.414543,103.580211,0.000000,0.000000
R4-12-47-2_tm_101,117.920840,-0.865314,117.920840,-0.865314,0.000000,0.000000
R4-12-47-2_tm_102,-60.124681,-101.782983,-60.124681,-101.782983,0.000000,0.000000
R4-12-47-2_tm_103,-59.284259,103.273445,-59.284259,103.273445,0.000000,0.000000
R4-12-47-2_tm_104,-60.560418,-102.279674,-60.560418,-102.279674,0.000000,0.000000
R4-12-47-2_tm_105,-60.572402,-102.345772,-60.572402,-102.345772,0.000000,0.000000
R4-12-47-2_tm_106,-60.583883,-102.220271,-60.583883,-102.220271,0.000000,0.000000
R4-12-47-2_tm_107,119.083235,-0.643560,119.083235,-0.643560,0.000000,0.000000
R4-12-47-2_tm_108,119.027683,-0.682549,119.027683,-0.682549,0.000000,0.000000
R4-12-47-2_tm_109,118.906050,-0.679854,118.906050,-0.679854,0.000000,0.000000
R4-12-47-2_tm_110,118.791783,-0.706488,118.791783,-0.706488,0.000000,0.000000
R4-12-47-2_tm_111,118.972167,-0.667152,118.972167,-0.667152,0.000000,0.000000
R4-12-47-2_tm_112,118.873235,-0.712556,118.873235,-0.712556,0.000000,0.000000
R4-12-47-2_tm_113,118.627348,-0.748434,118.627348,-0.748434,0.000000,0.000000
R4-12-47-2_tm_114,-60.626895,-102.480339,-60.626895,-102.480339,0.000000,0.000000
R4-12-47-2_tm_115,-60.575845,-102.185243,-60.575845,-102.185243,0.000000,0.000000
R4-12-47-2_tm_116,-60.586109,-102.219631,-60.586109,-102.219631,0.000000,0.000000
R4-12-47-2_tm_117,-60.561029,-102.103589,-60.561029,-102.103589,0.000000,0.000000
R4-12-47-2_tm_118,-60.530104,-101.965466,-60.530104,-101.965466,0.000000,0.000000
R4-12-47-2_tm_119,-60.622406,-102.439845,-60.622406,-102.439845,0.000000,0.000000
R4-12-47-2_tm_120,-60.532602,-101.979445,-60.532602,-101.979445,0.000000,0.000000
R4-12-47-2_tm_121,118.655471,-0.750642,118.655471,-0.750642,0.000000,0.000000
R4-12-47-2_tm_122,118.582515,-0.768180,118.582515,-0.768180,0.000000,0.000000
R4-12-47-2_tm_123,118.532119,-0.780503,118.532119,-0.780503,0.000000,0.000000
R4-12-47-2_tm_124,118.553269,-0.778961,118.553269,-0.778961,0.000000,0.000000
R4-12-47-2_tm_125,118.516420,-0.811251,118.516420,-0.811251,0.000000,0.000000
R4-12-47-2_tm_126,-60.362785,-102.783556,-60.362785,-102.783556,0.000000,0.000000
R4-12-47-2_tm_127,-60.298781,-102.628480,-60.298781,-102.628480,0.000000,0.000000
R4-12-47-2_tm_128,-60.360233,-102.645705,-60.360233,-102.645705,0.000000,0.000000
R4-12-47-2_tm_129,-60.224233,-102.386953,-60.224233,-102.386953,0.000000,0.000000
R4-12-47-2_tm_130,-60.256817,-102.454667,-60.256817,-102.454667,0.000000,0.000000
R4-12-47-2_tm_131,-60.291864,-102.312673,-60.291864,-102.312673,0.000000,0.000000
R4-12-47-2_tm_132,-60.195544,-101.873806,-60.195544,-101.873806,0.000000,0.000000
R4-12-47-2_tm_133,-60.218387,-102.318931,-60.218387,-102.318931,0.000000,0.000000
R4-12-47-2_tm_134,-60.299958,-102.484923,-60.299958,-102.484923,0.000000,0.000000
R4-12-47-2_tm_135,-60.261242,-102.359923,-60.261242,-102.359923,0.000000,0.000000
R4-12-47-2_tm_136,-60.209922,-102.195895,-60.209922,-102.195895,0.000000,0.000000
R4-12-47-2_tm_137,-59.141355,103.292047,-59.141355,103.292047,0.000000,0.000000
R4-12-47-2_tm_138,-59.262300,103.390508,-59.262300,103.390508,0.000000,0.000000
R4-12-47-2_tm_139,-59.109805,103.265908,-59.109805,103.265908,0.000000,0.000000
R4-12-47-2_tm_140,-59.298801,103.443345,-59.298801,103.443345,0.000000,0.000000
R4-12-47-2_tm_141,-59.352091,103.534851,-59.352091,103.534851,0.000000,0.000000
R4-12-47-2_tm_142,-59.385020,103.576400,-59.385020,103.576400,0.000000,0.000000
R4-12-47-2_tm_143,-59.292620,103.478510,-59.292620,103.478510,0.000000,0.000000
R4-12-47-2_tm_144,-59.158256,103.296792,-59.158256,103.296792,0.000000,0.000000
R4-12-47-2_tm_145,-59.187851,103.321296,-59.187851,103.321296,0.000000,0.000000
R4-12-47-2_tm_146,118.511193,-0.973148,118.511193,-0.973148,0.000000,0.000000
R4-12-47-2_tm_147,118.225710,-1.064282,118.225710,-1.064282,0.000000,0.000000
R4-12-47-2_tm_148,118.584945,-0.950537,118.584945,-0.950537,0.000000,0.000000
R4-12-47-2_tm_149,118.211980,-1.069322,118.211980,-1.069322,0.000000,0.000000
R4-12-47-2_tm_150,118.263474,-1.020050,118.263474,-1.020050,0.000000,0.000000
R4-12-47-2_tm_151,118.241462,-1.060822,118.241462,-1.060822,0.000000,0.000000
R4-12-47-2_tm_152,118.147977,-1.090482,118.147977,-1.090482,0.000000,0.000000
R4-12-47-2_tm_153,118.335583,-1.030868,118.335583,-1.030868,0.000000,0.000000
R4-12-47-2_tm_154,118.299248,-1.037317,118.299248,-1.037317,0.000000,0.000000
R4-12-47-2_tm_155,118.427374,-0.997151,118.427374,-0.997151,0.000000,0.000000
R4-12-47-2_tm_156,118.464455,-0.985805,118.464455,-0.985805,0.000000,0.000000
R4-12-47-2_tm_157,118.595297,-0.944480,118.595297,-0.944480,0.000000,0.000000
R4-12-47-2_tm_158,118.251907,-1.054699,118.251907,-1.054699,0.000000,0.000000
R4-12-47-2_tm_159,118.247002,-1.056501,118.247002,-1.056501,0.000000,0.000000
R4-12-47-2_tm_160,118.765076,-0.890913,118.765076,-0.890913,0.000000,0.000000
R4-12-47-2_tm_161,118.210862,-1.067439,118.210862,-1.067439,0.000000,0.000000
R4-12-47-2_tm_162,118.400247,-0.975172,118.400247,-0.975172,0.000000,0.000000
R4-12-47-2_tm_163,118.390124,-0.978730,118.390124,-0.978730,0.000000,0.000000
R4-12-47-2_tm_164,118.715988,-0.859356,118.715988,-0.859356,0.000000,0.000000
R4-12-47-2_tm_165,118.353822,-0.916471,118.353822,-0.916471,0.000000,0.000000
R4-12-47-2_tm_166,118.481021,-0.951005,118.481021,-0.951005,0.000000,0.000000
R4-12-47-2_tm_167,118.192274,-1.042678,118.192274,-1.042678,0.000000,0.000000
R4-12-47-2_tm_168,118.200904,-1.040063,118.200904,-1.040063,0.000000,0.000000
R4-12-47-2_tm_169,118.424167,-0.969139,118.424167,-0.969139,0.000000,0.000000
R4-12-47-2_tm_170,-60.522981,-102.147837,-60.522981,-102.147837,0.000000,0.000000
R4-12-47-2_tm_171,-60.501599,-102.075166,-60.501599,-102.075166,0.000000,0.000000
R4-12-47-2_tm_172,-60.609297,-102.412374,-60.609297,-102.412374,0.000000,0.000000
R4-12-47-2_tm_173,-60.454456,-101.921780,-60.454456,-101.921780,0.000000,0.000000
R4-12-47-2_tm_174,-60.601106,-102.381815,-60.601106,-102.381815,0.000000,0.000000
R4-12-47-2_tm_175,-60.491891,-102.036357,-60.491891,-102.036357,0.000000,0.000000
R4-12-47-2_tm_176,-60.544412,-102.205701,-60.544412,-102.205701,0.000000,0.000000
R4-12-47-2_tn_1,-59.443090,103.570990,-59.443090,103.570990,0.000000,0.000000
R4-12-47-2_tn_2,-59.360919,103.506892,-59.360919,103.506892,0.000000,0.000000
R4-12-47-2_tn_3,118.895888,-0.821266,118.895888,-0.821266,0.000000,0.000000
R4-12-47-2_tn_4,-60.661897,-102.551798,-60.661897,-102.551798,0.000000,0.000000
R4-12-47-2_tn_5,-59.207809,103.386611,-59.207809,103.386611,0.000000,0.000000
R4-12-47-2_tn_6,118.656546,-0.889807,118.656546,-0.889807,0.000000,0.000000
R4-12-47-2_tn_7,118.471223,-0.963165,118.471223,-0.963165,0.000000,0.000000
R4-12-47-2_tn_8,-59.524127,103.723210,-59.524127,103.723210,0.000000,0.000000
R4-12-47-2_tn_9,-60.381864,-102.945215,-60.381864,-102.945215,0.000000,0.000000
R4-12-47-2_tn_10,118.846661,-0.856458,118.846661,-0.856458,0.000000,0.000000
R4-12-47-2_tn_11,-60.577555,-102.588451,-60.577555,-102.588451,0.000000,0.000000
R4-12-47-2_tn_12,-59.491870,103.700807,-59.491870,103.700807,0.000000,0.000000
R4-12-47-2_tn_13,117.946962,-0.874108,117.946962,-0.874108,0.000000,0.000000
R4-12-47-2_tn_14,-60.140154,-101.806525,-60.140154,-101.806525,0.000000,0.000000
R4-12-47-2_tn_15,-58.809171,103.161832,-58.809171,103.161832,0.000000,0.000000
R4-12-47-2_tn_16,-59.727629,103.792907,-59.727629,103.792907,0.000000,0.000000
R4-12-47-2_tn_17,-59.593590,103.736211,-59.593590,103.736211,0.000000,0.000000
R4-12-47-2_tn_18,-59.609875,103.748334,-59.609875,103.748334,0.000000,0.000000
R4-12-47-2_tn_19,-59.447293,103.623690,-59.447293,103.623690,0.000000,0.000000
R4-12-47-2_tn_20,118.357710,-0.853968,118.357710,-0.853968,0.000000,0.000000
R4-12-47-2_tn_21,-59.294362,103.378578,-59.294362,103.378578,0.000000,0.000000
R4-12-47-2_tn_22,-59.587791,103.771967,-59.587791,103.771967,0.000000,0.000000
R4-12-47-2_tn_23,118.394122,-1.053823,118.394122,-1.053823,0.000000,0.000000
R4-12-47-2_tn_24,118.742826,-0.915111,118.742826,-0.915111,0.000000,0.000000
R4-12-47-2_tn_25,118.699917,-0.931314,118.699917,-0.931314,0.000000,0.000000
R4-12-47-2_tn_26,118.504986,-1.008358,118.504986,-1.008358,0.000000,0.000000
R4-12-47-2_tn_27,-60.606827,-102.178197,-60.606827,-102.178197,0.000000,0.000000
R4-12-47-2_tn_28,-60.625161,-102.302996,-60.625161,-102.302996,0.000000,0.000000
R4-12-47-2_tn_29,-60.615146,-102.240857,-60.615146,-102.240857,0.000000,0.000000
R4-12-47-2_tn_30,118.394486,-1.020645,118.394486,-1.020645,0.000000,0.000000
R4-12-47-2_tn_31,118.700144,-0.898212,118.700144,-0.898212,0.000000,0.000000
R4-12-47-2_tn_32,118.704005,-0.895455,118.704005,-0.895455,0.000000,0.000000
R4-12-47-2_tn_33,118.286920,-1.060242,118.286920,-1.060242,0.000000,0.000000
R4-12-47-2_tn_34,118.844966,-0.838115,118.844966,-0.838115,0.000000,0.000000
R4-12-47-2_tn_35,-60.636098,-102.474038,-60.636098,-102.474038,0.000000,0.000000
R4-12-47-2_tn_36,-60.648289,-102.555760,-60.648289,-102.555760,0.000000,0.000000
R4-12-47-2_tn_37,-60.645570,-102.532277,-60.645570,-102.532277,0.000000,0.000000
R4-12-47-2_tn_38,-60.644872,-102.530505,-60.644872,-102.530505,0.000000,0.000000
R4-12-47-2_tn_39,-59.585057,103.826879,-59.585057,103.826879,0.000000,0.000000
R4-12-47-2_tn_40,-59.577859,103.820943,-59.577859,103.820943,0.000000,0.000000
R4-12-47-2_tn_41,-59.560512,103.806383,-59.560512,103.806383,0.000000,0.000000
R4-12-47-2_tn_42,-59.491589,103.752238,-59.491589,103.752238,0.000000,0.000000
R4-12-47-2_tn_43,-59.576936,103.819000,-59.576936,103.819000,0.000000,0.000000
R4-12-47-2_tn_44,-60.594734,-102.382261,-60.594734,-102.382261,0.000000,0.000000
R4-12-47-2_tn_45,-60.590848,-102.373863,-60.590848,-102.373863,0.000000,0.000000
R4-12-47-2_tn_46,-60.614040,-102.427678,-60.614040,-102.427678,0.000000,0.000000
R4-12-47-2_tn_47,-60.587079,-102.365718,-60.587079,-102.365718,0.000000,0.000000
R4-12-47-2_tn_48,-60.696690,-102.606825,-60.696690,-102.606825,0.000000,0.000000
R4-12-47-2_tn_49,-60.620009,-102.440467,-60.620009,-102.440467,0.000000,0.000000
R4-12-47-2_tn_50,117.687192,-0.952196,117.687192,-0.952196,0.000000,0.000000
R4-12-47-2_tn_51,-60.600977,-102.143861,-60.600977,-102.143861,0.000000,0.000000
R4-12-47-2_tn_52,117.687571,-0.952168,117.687571,-0.952168,0.000000,0.000000
R4-12-47-2_tn_53,-59.117222,103.407726,-59.117222,103.407726,0.000000,0.000000
R4-12-47-2_tn_54,118.330419,-1.077071,118.330419,-1.077071,0.000000,0.000000
R4-12-47-2_tn_55,-59.400548,103.534993,-59.400548,103.534993,0.000000,0.000000
R4-12-47-2_tn_56,-59.782628,103.833643,-59.782628,103.833643,0.000000,0.000000
R4-12-47-2_tn_57,-59.776867,103.829627,-59.776867,103.829627,0.000000,0.000000
R4-12-47-2_tn_58,-59.670713,103.746862,-59.670713,103.746862,0.000000,0.000000
R4-12-47-2_tn_59,119.550042,-0.360175,119.550042,-0.360175,0.000000,0.000000
R4-12-47-2_tn_60,-59.787277,-102.408901,-59.787277,-102.408901,0.000000,0.000000
R4-12-47-2_tn_61,-59.760098,103.849288,-59.760098,103.849288,0.000000,0.000000
R4-12-47-2_tn_62,118.418010,-0.504691,118.418010,-0.504691,0.000000,0.000000
R4-12-47-2_tn_63,-59.830247,-102.330446,-59.830247,-102.330446,0.000000,0.000000
R4-12-47-2_tn_64,-59.479750,103.646411,-59.479750,103.646411,0.000000,0.000000
R4-12-47-2_tn_65,118.357645,-0.554633,118.357645,-0.554633,0.000000,0.000000
R4-12-47-2_tn_66,-60.308138,-103.081341,-60.308138,-103.081341,0.000000,0.000000
R4-12-47-2_tn_67,-59.101875,102.965181,-59.101875,102.965181,0.000000,0.000000
R4-12-47-2_tn_68,117.872149,-0.888679,117.872149,-0.888679,0.000000,0.000000
R4-12-47-2_tn_69,-60.535673,-102.301467,-60.535673,-102.301467,0.000000,0.000000
R4-12-47-2_tn_70,-59.019423,102.977905,-59.019423,102.977905,0.000000,0.000000
R4-12-47-2_tn_71,118.894158,-0.833876,118.894158,-0.833876,0.000000,0.000000
R4-12-47-2_tn_72,-60.229816,-101.583938,-60.229816,-101.583938,0.000000,0.000000
R4-12-47-2_tn_73,-59.010295,102.977396,-59.010295,102.977396,0.000000,0.000000
R4-12-47-2_tn_74,118.817680,-0.853140,118.817680,-0.853140,0.000000,0.000000
R4-12-47-2_tn_75,-60.222433,-101.596788,-60.222433,-101.596788,0.000000,0.000000
R4-12-47-2_tn_76,-59.016792,102.980891,-59.016792,102.980891,0.000000,0.000000
R4-12-47-2_tn_77,-59.653737,103.735055,-59.653737,103.735055,0.000000,0.000000
R4-12-47-2_tn_78,-59.282291,103.445736,-59.282291,103.445736,0.000000,0.000000
R4-12-47-2_tn_79,-59.643038,103.777018,-59.643038,103.777018,0.000000,0.000000
R4-12-47-2_tn_80,-59.607160,103.837276,-59.607160,103.837276,0.000000,0.000000
R4-12-47-2_tn_81,117.946575,-0.876515,117.946575,-0.876515,0.000000,0.000000
R4-12-47-2_tn_82,-59.154459,103.432812,-59.154459,103.432812,0.000000,0.000000
R4-12-47-2_tn_83,118.955183,-0.816865,118.955183,-0.816865,0.000000,0.000000
R4-12-47-2_tn_84,-59.566784,103.756631,-59.566784,103.756631,0.000000,0.000000
R4-12-47-2_tn_85,-59.280333,103.317463,-59.280333,103.317463,0.000000,0.000000
R4-12-47-2_tn_86,117.928730,-0.873151,117.928730,-0.873151,0.000000,0.000000
R4-12-47-2_tn_87,-60.169512,-101.750727,-60.169512,-101.750727,0.000000,0.000000
R4-12-47-2_tn_88,-59.391304,103.635818,-59.391304,103.635818,0.000000,0.000000
R4-12-47-2_tn_89,117.894270,-0.878393,117.894270,-0.878393,0.000000,0.000000
R4-12-47-2_tn_90,-60.416895,-102.105781,-60.416895,-102.105781,0.000000,0.000000
R4-12-47-2_tn_91,-59.026087,102.972695,-59.026087,102.972695,0.000000,0.000000
R4-12-47-2_tn_92,118.041764,-0.885115,118.041764,-0.885115,0.000000,0.000000
R4-12-47-2_tn_93,-60.210301,-101.640143,-60.210301,-101.640143,0.000000,0.000000
R4-12-47-2_tn_94,-59.022622,102.975315,-59.022622,102.975315,0.000000,0.000000
R4-12-47-2_tn_95,118.309960,-0.725235,118.309960,-0.725235,0.000000,0.000000
R4-12-47-2_tn_96,-60.008253,-102.021887,-60.008253,-102.021887,0.000000,0.000000
R4-12-47-2_tn_97,-59.042633,102.952375,-59.042633,102.952375,0.000000,0.000000
R4-12-47-2_tn_98,118.113536,-0.752217,118.113536,-0.752217,0.000000,0.000000
R4-12-47-2_tn_99,-60.033102,-101.982358,-60.033102,-101.982358,0.000000,0.000000
R4-12-47-2_tn_100,-59.523281,103.728293,-59.523281,103.728293,0.000000,0.000000
R4-12-47-2_tn_101,117.951887,-0.870812,117.951887,-0.870812,0.000000,0.000000
R4-12-47-2_tn_102,-60.144979,-101.807010,-60.144979,-101.807010,0.000000,0.000000
R4-12-47-2_tn_103,-59.313490,103.348709,-59.313490,103.348709,0.000000,0.000000
R4-12-47-2_tn_104,-60.656170,-102.492944,-60.656170,-102.492944,0.000000,0.000000
R4-12-47-2_tn_105,-60.663026,-102.547728,-60.663026,-102.547728,0.000000,0.000000
R4-12-47-2_tn_106,-60.629297,-102.321308,-60.629297,-102.321308,0.000000,0.000000
R4-12-47-2_tn_107,119.205343,-0.630421,119.205343,-0.630421,0.000000,0.000000
R4-12-47-2_tn_108,119.088767,-0.675996,119.088767,-0.675996,0.000000,0.000000
R4-12-47-2_tn_109,119.138409,-0.654924,119.138409,-0.654924,0.000000,0.000000
R4-12-47-2_tn_110,119.085578,-0.675035,119.085578,-0.675035,0.000000,0.000000
R4-12-47-2_tn_111,119.167727,-0.646148,119.167727,-0.646148,0.000000,0.000000
R4-12-47-2_tn_112,119.032266,-0.695538,119.032266,-0.695538,0.000000,0.000000
R4-12-47-2_tn_113,118.995115,-0.709197,118.995115,-0.709197,0.000000,0.000000
R4-12-47-2_tn_114,-60.662081,-102.558789,-60.662081,-102.558789,0.000000,0.000000
R4-12-47-2_tn_115,-60.626330,-102.297534,-60.626330,-102.297534,0.000000,0.000000
R4-12-47-2_tn_116,-60.626479,-102.309440,-60.626479,-102.309440,0.000000,0.000000
R4-12-47-2_tn_117,-60.611574,-102.215941,-60.611574,-102.215941,0.000000,0.000000
R4-12-47-2_tn_118,-60.595942,-102.111665,-60.595942,-102.111665,0.000000,0.000000
R4-12-47-2_tn_119,-60.657614,-102.518315,-60.657614,-102.518315,0.000000,0.000000
R4-12-47-2_tn_120,-60.598426,-102.125630,-60.598426,-102.125630,0.000000,0.000000
R4-12-47-2_tn_121,118.974128,-0.716650,118.974128,-0.716650,0.000000,0.000000
R4-12-47-2_tn_122,118.938163,-0.730297,118.938163,-0.730297,0.000000,0.000000
R4-12-47-2_tn_123,118.912460,-0.740030,118.912460,-0.740030,0.000000,0.000000
R4-12-47-2_tn_124,118.909008,-0.741101,118.909008,-0.741101,0.000000,0.000000
R4-12-47-2_tn_125,118.810924,-0.779989,118.810924,-0.779989,0.000000,0.000000
R4-12-47-2_tn_126,-60.427594,-102.929302,-60.427594,-102.929302,0.000000,0.000000
R4-12-47-2_tn_127,-60.423644,-102.909127,-60.423644,-102.909127,0.000000,0.000000
R4-12-47-2_tn_128,-60.395210,-102.724243,-60.395210,-102.724243,0.000000,0.000000
R4-12-47-2_tn_129,-60.404606,-102.791834,-60.404606,-102.791834,0.000000,0.000000
R4-12-47-2_tn_130,-60.402009,-102.780624,-60.402009,-102.780624,0.000000,0.000000
R4-12-47-2_tn_131,-60.352113,-102.447619,-60.352113,-102.447619,0.000000,0.000000
R4-12-47-2_tn_132,-60.301639,-102.110687,-60.301639,-102.110687,0.000000,0.000000
R4-12-47-2_tn_133,-60.388923,-102.701475,-60.388923,-102.701475,0.000000,0.000000
R4-12-47-2_tn_134,-60.385071,-102.675908,-60.385071,-102.675908,0.000000,0.000000
R4-12-47-2_tn_135,-60.376584,-102.618563,-60.376584,-102.618563,0.000000,0.000000
R4-12-47-2_tn_136,-60.365717,-102.544937,-60.365717,-102.544937,0.000000,0.000000
R4-12-47-2_tn_137,-59.381097,103.619070,-59.381097,103.619070,0.000000,0.000000
R4-12-47-2_tn_138,-59.494643,103.707125,-59.494643,103.707125,0.000000,0.000000
R4-12-47-2_tn_139,-59.349585,103.593066,-59.349585,103.593066,0.000000,0.000000
R4-12-47-2_tn_140,-59.487489,103.700449,-59.487489,103.700449,0.000000,0.000000
R4-12-47-2_tn_141,-59.453603,103.673169,-59.453603,103.673169,0.000000,0.000000
R4-12-47-2_tn_142,-59.457504,103.675151,-59.457504,103.675151,0.000000,0.000000
R4-12-47-2_tn_143,-59.408679,103.636714,-59.408679,103.636714,0.000000,0.000000
R4-12-47-2_tn_144,-59.405272,103.633664,-59.405272,103.633664,0.000000,0.000000
R4-12-47-2_tn_145,-59.434830,103.658038,-59.434830,103.658038,0.000000,0.000000
R4-12-47-2_tn_146,118.621652,-0.961575,118.621652,-0.961575,0.000000,0.000000
R4-12-47-2_tn_147,118.410266,-1.045094,118.410266,-1.045094,0.000000,0.000000
R4-12-47-2_tn_148,118.670802,-0.941525,118.670802,-0.941525,0.000000,0.000000
R4-12-47-2_tn_149,118.396559,-1.050140,118.396559,-1.050140,0.000000,0.000000
R4-12-47-2_tn_150,118.546360,-0.990531,118.546360,-0.990531,0.000000,0.000000
R4-12-47-2_tn_151,118.413691,-1.042911,118.413691,-1.042911,0.000000,0.000000
R4-12-47-2_tn_152,118.344971,-1.070047,118.344971,-1.070047,0.000000,0.000000
R4-12-47-2_tn_153,118.483087,-1.015489,118.483087,-1.015489,0.000000,0.000000
R4-12-47-2_tn_154,118.483686,-1.018097,118.483686,-1.018097,0.000000,0.000000
R4-12-47-2_tn_155,118.574760,-0.981741,118.574760,-0.981741,0.000000,0.000000
R4-12-47-2_tn_156,118.599515,-0.971670,118.599515,-0.971670,0.000000,0.000000
R4-12-47-2_tn_157,118.693410,-0.934176,118.693410,-0.934176,0.000000,0.000000
R4-12-47-2_tn_158,118.436421,-1.035500,118.436421,-1.035500,0.000000,0.000000
R4-12-47-2_tn_159,118.431524,-1.037304,118.431524,-1.037304,0.000000,0.000000
R4-12-47-2_tn_160,118.814060,-0.885746,118.814060,-0.885746,0.000000,0.000000
R4-12-47-2_tn_161,118.407747,-1.046975,118.407747,-1.046975,0.000000,0.000000
R4-12-47-2_tn_162,118.535379,-0.961018,118.535379,-0.961018,0.000000,0.000000
R4-12-47-2_tn_163,118.525268,-0.964579,118.525268,-0.964579,0.000000,0.000000
R4-12-47-2_tn_164,118.813995,-0.848992,118.813995,-0.848992,0.000000,0.000000
R4-12-47-2_tn_165,118.747069,-0.875086,118.747069,-0.875086,0.000000,0.000000
R4-12-47-2_tn_166,118.579230,-0.940697,118.579230,-0.940697,0.000000,0.000000
R4-12-47-2_tn_167,118.364573,-1.024733,118.364573,-1.024733,0.000000,0.000000
R4-12-47-2_tn_168,118.373189,-1.022115,118.373189,-1.022115,0.000000,0.000000
R4-12-47-2_tn_169,118.534707,-0.957555,118.534707,-0.957555,0.000000,0.000000
R4-12-47-2_tn_170,-60.639097,-102.406260,-60.639097,-102.406260,0.000000,0.000000
R4-12-47-2_tn_171,-60.632987,-102.367456,-60.632987,-102.367456,0.000000,0.000000
R4-12-47-2_tn_172,-60.654579,-102.513288,-60.654579,-102.513288,0.000000,0.000000
R4-12-47-2_tn_173,-60.621556,-102.293199,-60.621556,-102.293199,0.000000,0.000000
R4-12-47-2_tn_174,-60.651439,-102.493967,-60.651439,-102.493967,0.000000,0.000000
R4-12-47-2_tn_175,-60.628406,-102.339974,-60.628406,-102.339974,0.000000,0.000000
R4-12-47-2_tn_176,-60.645310,-102.430311,-60.645310,-102.430311,0.000000,0.000000
R4-12-47-2_tn_177,-59.406818,103.521614,-59.406818,103.521614,0.000000,0.000000
R4-12-47-2_tn_178,-59.317373,103.447571,-59.317373,103.447571,0.000000,0.000000
R4-12-47-2_tn_179,118.785697,-0.832944,118.785697,-0.832944,0.000000,0.000000
R4-12-47-2_tn_180,-60.616641,-102.450910,-60.616641,-102.450910,0.000000,0.000000
R4-12-47-2_tn_181,-59.149698,103.307344,-59.149698,103.307344,0.000000,0.000000
R4-12-47-2_tn_182,118.582956,-0.897565,118.582956,-0.897565,0.000000,0.000000
R4-12-47-2_tn_183,118.372923,-0.973462,118.372923,-0.973462,0.000000,0.000000
R4-12-47-2_tn_184,-59.509644,103.703494,-59.509644,103.703494,0.000000,0.000000
R4-12-47-2_tn_185,-60.376890,-102.934014,-60.376890,-102.934014,0.000000,0.000000
R4-12-47-2_tn_186,118.756852,-0.865951,118.756852,-0.865951,0.000000,0.000000
R4-12-47-2_tn_187,-60.540747,-102.506224,-60.540747,-102.506224,0.000000,0.000000
R4-12-47-2_tn_188,-59.438735,103.628443,-59.438735,103.628443,0.000000,0.000000
R4-12-47-2_tn_189,117.915913,-0.868609,117.915913,-0.868609,0.000000,0.000000
R4-12-47-2_tn_190,-60.119856,-101.782498,-60.119856,-101.782498,0.000000,0.000000
R4-12-47-2_tn_191,-58.772839,103.112071,-58.772839,103.112071,0.000000,0.000000
R4-12-47-2_tn_192,-59.698650,103.753554,-59.698650,103.753554,0.000000,0.000000
R4-12-47-2_tn_193,-59.542865,103.667216,-59.542865,103.667216,0.000000,0.000000
R4-12-47-2_tn_194,-59.602632,103.738486,-59.602632,103.738486,0.000000,0.000000
R4-12-47-2_tn_195,-59.360245,103.505126,-59.360245,103.505126,0.000000,0.000000
R4-12-47-2_tn_196,118.277433,-0.841195,118.277433,-0.841195,0.000000,0.000000
R4-12-47-2_tn_197,-59.265156,103.303316,-59.265156,103.303316,0.000000,0.000000
R4-12-47-2_tn_198,-59.566070,103.742413,-59.566070,103.742413,0.000000,0.000000
R4-12-47-2_tn_199,118.172552,-1.076835,118.172552,-1.076835,0.000000,0.000000
R4-12-47-2_tn_200,118.386534,-0.952499,118.386534,-0.952499,0.000000,0.000000
...
